
#######################################################################
#
#                 Cambridge Crystallographic Data Centre
#                                CCDC 
#
#######################################################################
#
# If this CIF has been generated from an entry in the Cambridge 
# Structural Database, then it will include bibliographic, chemical, 
# crystal, experimental, refinement or atomic coordinate data resulting 
# from the CCDC's data processing and validation procedures.
#
#######################################################################

data_T2-gamma_240K
_symmetry_cell_setting           triclinic
_symmetry_space_group_name_H-M   'P 1'
_symmetry_Int_Tables_number      1
_space_group_name_Hall           'P 1'
loop_
_symmetry_equiv_pos_site_id
_symmetry_equiv_pos_as_xyz
1 x,y,z
_cell_length_a                   23.220900
_cell_length_b                   23.229878
_cell_length_c                   7.283333
_cell_angle_alpha                90.000000
_cell_angle_beta                 90.000000
_cell_angle_gamma                120.004921
_cell_volume                     3402.24
loop_
_atom_site_label
_atom_site_type_symbol
_atom_site_fract_x
_atom_site_fract_y
_atom_site_fract_z
O1 O 0.510960 0.489040 0.750000
N1 N 0.459890 0.540110 0.599800
C1 C 0.333300 0.666700 0.573600
C2 C 0.368320 0.631680 0.653110
C3 C 0.397560 0.602440 0.554660
C4 C 0.426820 0.573180 0.653790
C5 C 0.480020 0.519980 0.750000
H1 H 0.397700 0.602300 0.416000
H2 H 0.333300 0.666700 0.432000
H3 H 0.468600 0.531400 0.482000
O2 O 0.510960 1.021920 0.750000
N2 N 0.459890 0.919780 0.599800
C6 C 0.368320 0.736640 0.653110
C7 C 0.397560 0.795120 0.554660
C8 C 0.426820 0.853640 0.653790
C9 C 0.480020 0.960040 0.750000
H4 H 0.397700 0.795400 0.416000
H5 H 0.468600 0.937200 0.482000
O3 O -0.021920 0.489040 0.750000
N3 N 0.080220 0.540110 0.599800
C10 C 0.263360 0.631680 0.653110
C11 C 0.204880 0.602440 0.554660
C12 C 0.146360 0.573180 0.653790
C13 C 0.039960 0.519980 0.750000
H6 H 0.204600 0.602300 0.416000
H7 H 0.062800 0.531400 0.482000
N4 N 0.080220 0.540110 0.900200
C14 C 0.333400 0.666700 0.926400
C15 C 0.263360 0.631680 0.846890
C16 C 0.204880 0.602440 0.945340
C17 C 0.146360 0.573180 0.846210
H8 H 0.204600 0.602300 1.084000
H9 H 0.333400 0.666700 1.068000
H10 H 0.062800 0.531400 1.018000
N5 N 0.459890 0.540110 0.900200
C18 C 0.368320 0.631680 0.846890
C19 C 0.397560 0.602440 0.945340
C20 C 0.426820 0.573180 0.846210
H11 H 0.397700 0.602300 1.084000
H12 H 0.468600 0.531400 1.018000
N6 N 0.459890 0.919780 0.900200
C21 C 0.368320 0.736640 0.846890
C22 C 0.397560 0.795120 0.945340
C23 C 0.426820 0.853640 0.846210
H13 H 0.397700 0.795400 1.084000
H14 H 0.468600 0.937200 1.018000
O4 O 0.489040 0.510960 0.250000
N7 N 0.540110 0.459890 0.099800
C24 C 0.666700 0.333300 0.073600
C25 C 0.631680 0.368320 0.153110
C26 C 0.602440 0.397560 0.054660
C27 C 0.573180 0.426820 0.153790
C28 C 0.519980 0.480020 0.250000
H15 H 0.602300 0.397700 -0.084000
H16 H 0.666700 0.333300 -0.068000
H17 H 0.531400 0.468600 -0.018000
O5 O 0.489040 -0.021920 0.250000
N8 N 0.540110 0.080220 0.099800
C29 C 0.631680 0.263360 0.153110
C30 C 0.602440 0.204880 0.054660
C31 C 0.573180 0.146360 0.153790
C32 C 0.519980 0.039960 0.250000
H18 H 0.602300 0.204600 -0.084000
H19 H 0.531400 0.062800 -0.018000
O6 O 1.021920 0.510960 0.250000
N9 N 0.919780 0.459890 0.099800
C33 C 0.736640 0.368320 0.153110
C34 C 0.795120 0.397560 0.054660
C35 C 0.853640 0.426820 0.153790
C36 C 0.960040 0.480020 0.250000
H20 H 0.795400 0.397700 -0.084000
H21 H 0.937200 0.468600 -0.018000
N10 N 0.919780 0.459890 0.400200
C37 C 0.666600 0.333300 0.426400
C38 C 0.736640 0.368320 0.346890
C39 C 0.795120 0.397560 0.445340
C40 C 0.853640 0.426820 0.346210
H22 H 0.795400 0.397700 0.584000
H23 H 0.666600 0.333300 0.568000
H24 H 0.937200 0.468600 0.518000
N11 N 0.540110 0.459890 0.400200
C41 C 0.631680 0.368320 0.346890
C42 C 0.602440 0.397560 0.445340
C43 C 0.573180 0.426820 0.346210
H25 H 0.602300 0.397700 0.584000
H26 H 0.531400 0.468600 0.518000
N12 N 0.540110 0.080220 0.400200
C44 C 0.631680 0.263360 0.346890
C45 C 0.602440 0.204880 0.445340
C46 C 0.573180 0.146360 0.346210
H27 H 0.602300 0.204600 0.584000
H28 H 0.531400 0.062800 0.518000
loop_
_geom_bond_atom_site_label_1
_geom_bond_atom_site_label_2
_geom_bond_site_symmetry_1
_geom_bond_site_symmetry_2
O1 C5 1_555 1_555
N1 C4 1_555 1_555
N1 C5 1_555 1_555
N1 H3 1_555 1_555
C1 C2 1_555 1_555
C1 H2 1_555 1_555
C1 C6 1_555 1_555
C1 C10 1_555 1_555
C2 C3 1_555 1_555
C2 C18 1_555 1_555
C3 C4 1_555 1_555
C3 H1 1_555 1_555
C4 C20 1_555 1_555
C5 N5 1_555 1_555
O2 C9 1_555 1_555
N2 C8 1_555 1_555
N2 C9 1_555 1_555
N2 H5 1_555 1_555
C6 C7 1_555 1_555
C6 C21 1_555 1_555
C7 C8 1_555 1_555
C7 H4 1_555 1_555
C8 C23 1_555 1_555
C9 N6 1_555 1_555
O3 C13 1_555 1_555
N3 C12 1_555 1_555
N3 C13 1_555 1_555
N3 H7 1_555 1_555
C10 C11 1_555 1_555
C10 C15 1_555 1_555
C11 C12 1_555 1_555
C11 H6 1_555 1_555
C12 C17 1_555 1_555
C13 N4 1_555 1_555
N4 C17 1_555 1_555
N4 H10 1_555 1_555
C14 C15 1_555 1_555
C14 H9 1_555 1_555
C14 C18 1_555 1_555
C14 C21 1_555 1_555
C15 C16 1_555 1_555
C16 C17 1_555 1_555
C16 H8 1_555 1_555
N5 C20 1_555 1_555
N5 H12 1_555 1_555
C18 C19 1_555 1_555
C19 C20 1_555 1_555
C19 H11 1_555 1_555
N6 C23 1_555 1_555
N6 H14 1_555 1_555
C21 C22 1_555 1_555
C22 C23 1_555 1_555
C22 H13 1_555 1_555
O4 C28 1_555 1_555
N7 C27 1_555 1_555
N7 C28 1_555 1_555
N7 H17 1_555 1_555
C24 C25 1_555 1_555
C24 H16 1_555 1_555
C24 C29 1_555 1_555
C24 C33 1_555 1_555
C25 C26 1_555 1_555
C25 C41 1_555 1_555
C26 C27 1_555 1_555
C26 H15 1_555 1_555
C27 C43 1_555 1_555
C28 N11 1_555 1_555
O5 C32 1_555 1_555
N8 C31 1_555 1_555
N8 C32 1_555 1_555
N8 H19 1_555 1_555
C29 C30 1_555 1_555
C29 C44 1_555 1_555
C30 C31 1_555 1_555
C30 H18 1_555 1_555
C31 C46 1_555 1_555
C32 N12 1_555 1_555
O6 C36 1_555 1_555
N9 C35 1_555 1_555
N9 C36 1_555 1_555
N9 H21 1_555 1_555
C33 C34 1_555 1_555
C33 C38 1_555 1_555
C34 C35 1_555 1_555
C34 H20 1_555 1_555
C35 C40 1_555 1_555
C36 N10 1_555 1_555
N10 C40 1_555 1_555
N10 H24 1_555 1_555
C37 C38 1_555 1_555
C37 H23 1_555 1_555
C37 C41 1_555 1_555
C37 C44 1_555 1_555
C38 C39 1_555 1_555
C39 C40 1_555 1_555
C39 H22 1_555 1_555
N11 C43 1_555 1_555
N11 H26 1_555 1_555
C41 C42 1_555 1_555
C42 C43 1_555 1_555
C42 H25 1_555 1_555
N12 C46 1_555 1_555
N12 H28 1_555 1_555
C44 C45 1_555 1_555
C45 C46 1_555 1_555
C45 H27 1_555 1_555

#END

#######################################################################
#
#                 Cambridge Crystallographic Data Centre
#                                CCDC 
#
#######################################################################
#
# If this CIF has been generated from an entry in the Cambridge 
# Structural Database, then it will include bibliographic, chemical, 
# crystal, experimental, refinement or atomic coordinate data resulting 
# from the CCDC's data processing and validation procedures.
#
#######################################################################

data_T2-gamma_450K
_symmetry_cell_setting           triclinic
_symmetry_space_group_name_H-M   'P 1'
_symmetry_Int_Tables_number      1
_space_group_name_Hall           'P 1'
loop_
_symmetry_equiv_pos_site_id
_symmetry_equiv_pos_as_xyz
1 x,y,z
_cell_length_a                   23.225000
_cell_length_b                   23.229878
_cell_length_c                   7.283333
_cell_angle_alpha                90.000000
_cell_angle_beta                 90.000000
_cell_angle_gamma                120.004921
_cell_volume                     3402.84
loop_
_atom_site_label
_atom_site_type_symbol
_atom_site_fract_x
_atom_site_fract_y
_atom_site_fract_z
O1 O 0.510750 0.489250 0.750000
N1 N 0.459640 0.540360 0.600400
C1 C 0.333300 0.666700 0.574800
C2 C 0.368210 0.631790 0.653170
C3 C 0.397470 0.602530 0.556200
C4 C 0.426700 0.573300 0.654100
C5 C 0.479930 0.520070 0.750000
H1 H 0.333300 0.666700 0.437000
H2 H 0.397900 0.602100 0.422000
H3 H 0.468400 0.531600 0.488000
O2 O 0.510750 1.021500 0.750000
N2 N 0.459640 0.919280 0.600400
C6 C 0.368210 0.736420 0.653170
C7 C 0.397470 0.794940 0.556200
C8 C 0.426700 0.853400 0.654100
C9 C 0.479930 0.959860 0.750000
H4 H 0.397900 0.795800 0.422000
H5 H 0.468400 0.936800 0.488000
O3 O -0.021500 0.489250 0.750000
N3 N 0.080720 0.540360 0.600400
C10 C 0.263580 0.631790 0.653170
C11 C 0.205060 0.602530 0.556200
C12 C 0.146600 0.573300 0.654100
C13 C 0.040140 0.520070 0.750000
H6 H 0.204200 0.602100 0.422000
H7 H 0.063200 0.531600 0.488000
N4 N 0.080720 0.540360 0.899600
C14 C 0.333400 0.666700 0.925200
C15 C 0.263580 0.631790 0.846830
C16 C 0.205060 0.602530 0.943800
C17 C 0.146600 0.573300 0.845900
H8 H 0.333400 0.666700 1.063000
H9 H 0.204200 0.602100 1.078000
H10 H 0.063200 0.531600 1.012000
N5 N 0.459640 0.540360 0.899600
C18 C 0.368210 0.631790 0.846830
C19 C 0.397470 0.602530 0.943800
C20 C 0.426700 0.573300 0.845900
H11 H 0.397900 0.602100 1.078000
H12 H 0.468400 0.531600 1.012000
N6 N 0.459640 0.919280 0.899600
C21 C 0.368210 0.736420 0.846830
C22 C 0.397470 0.794940 0.943800
C23 C 0.426700 0.853400 0.845900
H13 H 0.397900 0.795800 1.078000
H14 H 0.468400 0.936800 1.012000
O4 O 0.489250 0.510750 0.250000
N7 N 0.540360 0.459640 0.100400
C24 C 0.666700 0.333300 0.074800
C25 C 0.631790 0.368210 0.153170
C26 C 0.602530 0.397470 0.056200
C27 C 0.573300 0.426700 0.154100
C28 C 0.520070 0.479930 0.250000
H15 H 0.666700 0.333300 -0.063000
H16 H 0.602100 0.397900 -0.078000
H17 H 0.531600 0.468400 -0.012000
O5 O 0.489250 -0.021500 0.250000
N8 N 0.540360 0.080720 0.100400
C29 C 0.631790 0.263580 0.153170
C30 C 0.602530 0.205060 0.056200
C31 C 0.573300 0.146600 0.154100
C32 C 0.520070 0.040140 0.250000
H18 H 0.602100 0.204200 -0.078000
H19 H 0.531600 0.063200 -0.012000
O6 O 1.021500 0.510750 0.250000
N9 N 0.919280 0.459640 0.100400
C33 C 0.736420 0.368210 0.153170
C34 C 0.794940 0.397470 0.056200
C35 C 0.853400 0.426700 0.154100
C36 C 0.959860 0.479930 0.250000
H20 H 0.795800 0.397900 -0.078000
H21 H 0.936800 0.468400 -0.012000
N10 N 0.919280 0.459640 0.399600
C37 C 0.666600 0.333300 0.425200
C38 C 0.736420 0.368210 0.346830
C39 C 0.794940 0.397470 0.443800
C40 C 0.853400 0.426700 0.345900
H22 H 0.666600 0.333300 0.563000
H23 H 0.795800 0.397900 0.578000
H24 H 0.936800 0.468400 0.512000
N11 N 0.540360 0.459640 0.399600
C41 C 0.631790 0.368210 0.346830
C42 C 0.602530 0.397470 0.443800
C43 C 0.573300 0.426700 0.345900
H25 H 0.602100 0.397900 0.578000
H26 H 0.531600 0.468400 0.512000
N12 N 0.540360 0.080720 0.399600
C44 C 0.631790 0.263580 0.346830
C45 C 0.602530 0.205060 0.443800
C46 C 0.573300 0.146600 0.345900
H27 H 0.602100 0.204200 0.578000
H28 H 0.531600 0.063200 0.512000
loop_
_geom_bond_atom_site_label_1
_geom_bond_atom_site_label_2
_geom_bond_site_symmetry_1
_geom_bond_site_symmetry_2
O1 C5 1_555 1_555
N1 C4 1_555 1_555
N1 C5 1_555 1_555
N1 H3 1_555 1_555
C1 C2 1_555 1_555
C1 H1 1_555 1_555
C1 C6 1_555 1_555
C1 C10 1_555 1_555
C2 C3 1_555 1_555
C2 C18 1_555 1_555
C3 C4 1_555 1_555
C3 H2 1_555 1_555
C4 C20 1_555 1_555
C5 N5 1_555 1_555
O2 C9 1_555 1_555
N2 C8 1_555 1_555
N2 C9 1_555 1_555
N2 H5 1_555 1_555
C6 C7 1_555 1_555
C6 C21 1_555 1_555
C7 C8 1_555 1_555
C7 H4 1_555 1_555
C8 C23 1_555 1_555
C9 N6 1_555 1_555
O3 C13 1_555 1_555
N3 C12 1_555 1_555
N3 C13 1_555 1_555
N3 H7 1_555 1_555
C10 C11 1_555 1_555
C10 C15 1_555 1_555
C11 C12 1_555 1_555
C11 H6 1_555 1_555
C12 C17 1_555 1_555
C13 N4 1_555 1_555
N4 C17 1_555 1_555
N4 H10 1_555 1_555
C14 C15 1_555 1_555
C14 H8 1_555 1_555
C14 C18 1_555 1_555
C14 C21 1_555 1_555
C15 C16 1_555 1_555
C16 C17 1_555 1_555
C16 H9 1_555 1_555
N5 C20 1_555 1_555
N5 H12 1_555 1_555
C18 C19 1_555 1_555
C19 C20 1_555 1_555
C19 H11 1_555 1_555
N6 C23 1_555 1_555
N6 H14 1_555 1_555
C21 C22 1_555 1_555
C22 C23 1_555 1_555
C22 H13 1_555 1_555
O4 C28 1_555 1_555
N7 C27 1_555 1_555
N7 C28 1_555 1_555
N7 H17 1_555 1_555
C24 C25 1_555 1_555
C24 H15 1_555 1_555
C24 C29 1_555 1_555
C24 C33 1_555 1_555
C25 C26 1_555 1_555
C25 C41 1_555 1_555
C26 C27 1_555 1_555
C26 H16 1_555 1_555
C27 C43 1_555 1_555
C28 N11 1_555 1_555
O5 C32 1_555 1_555
N8 C31 1_555 1_555
N8 C32 1_555 1_555
N8 H19 1_555 1_555
C29 C30 1_555 1_555
C29 C44 1_555 1_555
C30 C31 1_555 1_555
C30 H18 1_555 1_555
C31 C46 1_555 1_555
C32 N12 1_555 1_555
O6 C36 1_555 1_555
N9 C35 1_555 1_555
N9 C36 1_555 1_555
N9 H21 1_555 1_555
C33 C34 1_555 1_555
C33 C38 1_555 1_555
C34 C35 1_555 1_555
C34 H20 1_555 1_555
C35 C40 1_555 1_555
C36 N10 1_555 1_555
N10 C40 1_555 1_555
N10 H24 1_555 1_555
C37 C38 1_555 1_555
C37 H22 1_555 1_555
C37 C41 1_555 1_555
C37 C44 1_555 1_555
C38 C39 1_555 1_555
C39 C40 1_555 1_555
C39 H23 1_555 1_555
N11 C43 1_555 1_555
N11 H26 1_555 1_555
C41 C42 1_555 1_555
C42 C43 1_555 1_555
C42 H25 1_555 1_555
N12 C46 1_555 1_555
N12 H28 1_555 1_555
C44 C45 1_555 1_555
C45 C46 1_555 1_555
C45 H27 1_555 1_555

#END

#######################################################################
#
#                 Cambridge Crystallographic Data Centre
#                                CCDC 
#
#######################################################################
#
# If this CIF has been generated from an entry in the Cambridge 
# Structural Database, then it will include bibliographic, chemical, 
# crystal, experimental, refinement or atomic coordinate data resulting 
# from the CCDC's data processing and validation procedures.
#
#######################################################################

data_T2-gamma_300K
_symmetry_cell_setting           triclinic
_symmetry_space_group_name_H-M   'P 1'
_symmetry_Int_Tables_number      1
_space_group_name_Hall           'P 1'
loop_
_symmetry_equiv_pos_site_id
_symmetry_equiv_pos_as_xyz
1 x,y,z
_cell_length_a                   23.227900
_cell_length_b                   23.229878
_cell_length_c                   7.283333
_cell_angle_alpha                90.000000
_cell_angle_beta                 90.000000
_cell_angle_gamma                120.004921
_cell_volume                     3403.27
loop_
_atom_site_label
_atom_site_type_symbol
_atom_site_fract_x
_atom_site_fract_y
_atom_site_fract_z
O1 O 0.510910 0.489090 0.750000
N1 N 0.459840 0.540160 0.600020
H1 H 0.468500 0.531500 0.485000
C1 C 0.333300 0.666700 0.573600
H2 H 0.333300 0.666700 0.432000
C2 C 0.368300 0.631700 0.652950
C3 C 0.397530 0.602470 0.554920
H3 H 0.397600 0.602400 0.417000
C4 C 0.426840 0.573160 0.653820
C5 C 0.480040 0.519960 0.750000
O2 O 0.510910 1.021820 0.750000
N2 N 0.459840 0.919680 0.600020
H4 H 0.468500 0.937000 0.485000
C6 C 0.368300 0.736600 0.652950
C7 C 0.397530 0.795060 0.554920
H5 H 0.397600 0.795200 0.417000
C8 C 0.426840 0.853680 0.653820
C9 C 0.480040 0.960080 0.750000
O3 O -0.021820 0.489090 0.750000
N3 N 0.080320 0.540160 0.600020
H6 H 0.063000 0.531500 0.485000
C10 C 0.263400 0.631700 0.652950
C11 C 0.204940 0.602470 0.554920
H7 H 0.204800 0.602400 0.417000
C12 C 0.146320 0.573160 0.653820
C13 C 0.039920 0.519960 0.750000
N4 N 0.080320 0.540160 0.899980
H8 H 0.063000 0.531500 1.015000
C14 C 0.333400 0.666700 0.926400
H9 H 0.333400 0.666700 1.068000
C15 C 0.263400 0.631700 0.847050
C16 C 0.204940 0.602470 0.945080
H10 H 0.204800 0.602400 1.083000
C17 C 0.146320 0.573160 0.846180
N5 N 0.459840 0.540160 0.899980
H11 H 0.468500 0.531500 1.015000
C18 C 0.368300 0.631700 0.847050
C19 C 0.397530 0.602470 0.945080
H12 H 0.397600 0.602400 1.083000
C20 C 0.426840 0.573160 0.846180
N6 N 0.459840 0.919680 0.899980
H13 H 0.468500 0.937000 1.015000
C21 C 0.368300 0.736600 0.847050
C22 C 0.397530 0.795060 0.945080
H14 H 0.397600 0.795200 1.083000
C23 C 0.426840 0.853680 0.846180
O4 O 0.489090 0.510910 0.250000
N7 N 0.540160 0.459840 0.100020
H15 H 0.531500 0.468500 -0.015000
C24 C 0.666700 0.333300 0.073600
H16 H 0.666700 0.333300 -0.068000
C25 C 0.631700 0.368300 0.152950
C26 C 0.602470 0.397530 0.054920
H17 H 0.602400 0.397600 -0.083000
C27 C 0.573160 0.426840 0.153820
C28 C 0.519960 0.480040 0.250000
O5 O 0.489090 -0.021820 0.250000
N8 N 0.540160 0.080320 0.100020
H18 H 0.531500 0.063000 -0.015000
C29 C 0.631700 0.263400 0.152950
C30 C 0.602470 0.204940 0.054920
H19 H 0.602400 0.204800 -0.083000
C31 C 0.573160 0.146320 0.153820
C32 C 0.519960 0.039920 0.250000
O6 O 1.021820 0.510910 0.250000
N9 N 0.919680 0.459840 0.100020
H20 H 0.937000 0.468500 -0.015000
C33 C 0.736600 0.368300 0.152950
C34 C 0.795060 0.397530 0.054920
H21 H 0.795200 0.397600 -0.083000
C35 C 0.853680 0.426840 0.153820
C36 C 0.960080 0.480040 0.250000
N10 N 0.919680 0.459840 0.399980
H22 H 0.937000 0.468500 0.515000
C37 C 0.666600 0.333300 0.426400
H23 H 0.666600 0.333300 0.568000
C38 C 0.736600 0.368300 0.347050
C39 C 0.795060 0.397530 0.445080
H24 H 0.795200 0.397600 0.583000
C40 C 0.853680 0.426840 0.346180
N11 N 0.540160 0.459840 0.399980
H25 H 0.531500 0.468500 0.515000
C41 C 0.631700 0.368300 0.347050
C42 C 0.602470 0.397530 0.445080
H26 H 0.602400 0.397600 0.583000
C43 C 0.573160 0.426840 0.346180
N12 N 0.540160 0.080320 0.399980
H27 H 0.531500 0.063000 0.515000
C44 C 0.631700 0.263400 0.347050
C45 C 0.602470 0.204940 0.445080
H28 H 0.602400 0.204800 0.583000
C46 C 0.573160 0.146320 0.346180
loop_
_geom_bond_atom_site_label_1
_geom_bond_atom_site_label_2
_geom_bond_site_symmetry_1
_geom_bond_site_symmetry_2
O1 C5 1_555 1_555
N1 H1 1_555 1_555
N1 C4 1_555 1_555
N1 C5 1_555 1_555
C1 H2 1_555 1_555
C1 C2 1_555 1_555
C1 C6 1_555 1_555
C1 C10 1_555 1_555
C2 C3 1_555 1_555
C2 C18 1_555 1_555
C3 H3 1_555 1_555
C3 C4 1_555 1_555
C4 C20 1_555 1_555
C5 N5 1_555 1_555
O2 C9 1_555 1_555
N2 H4 1_555 1_555
N2 C8 1_555 1_555
N2 C9 1_555 1_555
C6 C7 1_555 1_555
C6 C21 1_555 1_555
C7 H5 1_555 1_555
C7 C8 1_555 1_555
C8 C23 1_555 1_555
C9 N6 1_555 1_555
O3 C13 1_555 1_555
N3 H6 1_555 1_555
N3 C12 1_555 1_555
N3 C13 1_555 1_555
C10 C11 1_555 1_555
C10 C15 1_555 1_555
C11 H7 1_555 1_555
C11 C12 1_555 1_555
C12 C17 1_555 1_555
C13 N4 1_555 1_555
N4 H8 1_555 1_555
N4 C17 1_555 1_555
C14 H9 1_555 1_555
C14 C15 1_555 1_555
C14 C18 1_555 1_555
C14 C21 1_555 1_555
C15 C16 1_555 1_555
C16 H10 1_555 1_555
C16 C17 1_555 1_555
N5 H11 1_555 1_555
N5 C20 1_555 1_555
C18 C19 1_555 1_555
C19 H12 1_555 1_555
C19 C20 1_555 1_555
N6 H13 1_555 1_555
N6 C23 1_555 1_555
C21 C22 1_555 1_555
C22 H14 1_555 1_555
C22 C23 1_555 1_555
O4 C28 1_555 1_555
N7 H15 1_555 1_555
N7 C27 1_555 1_555
N7 C28 1_555 1_555
C24 H16 1_555 1_555
C24 C25 1_555 1_555
C24 C29 1_555 1_555
C24 C33 1_555 1_555
C25 C26 1_555 1_555
C25 C41 1_555 1_555
C26 H17 1_555 1_555
C26 C27 1_555 1_555
C27 C43 1_555 1_555
C28 N11 1_555 1_555
O5 C32 1_555 1_555
N8 H18 1_555 1_555
N8 C31 1_555 1_555
N8 C32 1_555 1_555
C29 C30 1_555 1_555
C29 C44 1_555 1_555
C30 H19 1_555 1_555
C30 C31 1_555 1_555
C31 C46 1_555 1_555
C32 N12 1_555 1_555
O6 C36 1_555 1_555
N9 H20 1_555 1_555
N9 C35 1_555 1_555
N9 C36 1_555 1_555
C33 C34 1_555 1_555
C33 C38 1_555 1_555
C34 H21 1_555 1_555
C34 C35 1_555 1_555
C35 C40 1_555 1_555
C36 N10 1_555 1_555
N10 H22 1_555 1_555
N10 C40 1_555 1_555
C37 H23 1_555 1_555
C37 C38 1_555 1_555
C37 C41 1_555 1_555
C37 C44 1_555 1_555
C38 C39 1_555 1_555
C39 H24 1_555 1_555
C39 C40 1_555 1_555
N11 H25 1_555 1_555
N11 C43 1_555 1_555
C41 C42 1_555 1_555
C42 H26 1_555 1_555
C42 C43 1_555 1_555
N12 H27 1_555 1_555
N12 C46 1_555 1_555
C44 C45 1_555 1_555
C45 H28 1_555 1_555
C45 C46 1_555 1_555

#END

#######################################################################
#
#                 Cambridge Crystallographic Data Centre
#                                CCDC 
#
#######################################################################
#
# If this CIF has been generated from an entry in the Cambridge 
# Structural Database, then it will include bibliographic, chemical, 
# crystal, experimental, refinement or atomic coordinate data resulting 
# from the CCDC's data processing and validation procedures.
#
#######################################################################

data_T2-gamma_500K
_symmetry_cell_setting           triclinic
_symmetry_space_group_name_H-M   'P 1'
_symmetry_Int_Tables_number      1
_space_group_name_Hall           'P 1'
loop_
_symmetry_equiv_pos_site_id
_symmetry_equiv_pos_as_xyz
1 x,y,z
_cell_length_a                   23.295000
_cell_length_b                   23.289846
_cell_length_c                   7.283333
_cell_angle_alpha                90.000000
_cell_angle_beta                 90.000000
_cell_angle_gamma                120.014423
_cell_volume                     3421.58
loop_
_atom_site_label
_atom_site_type_symbol
_atom_site_fract_x
_atom_site_fract_y
_atom_site_fract_z
O1 O 0.510620 0.489380 0.750000
N1 N 0.459580 0.540420 0.600200
H1 H 0.466300 0.533700 0.488300
C1 C 0.333300 0.666700 0.575200
H2 H 0.333300 0.666700 0.440700
C2 C 0.368210 0.631790 0.653100
C3 C 0.397450 0.602550 0.556700
H3 H 0.397500 0.602500 0.429100
C4 C 0.426630 0.573370 0.654000
C5 C 0.479750 0.520250 0.750000
O2 O 0.510620 1.021240 0.750000
N2 N 0.459580 0.919160 0.600200
H4 H 0.466300 0.932600 0.488300
C6 C 0.368210 0.736420 0.653100
C7 C 0.397450 0.794900 0.556700
H5 H 0.397500 0.795000 0.429100
C8 C 0.426630 0.853260 0.654000
C9 C 0.479750 0.959500 0.750000
O3 O -0.021240 0.489380 0.750000
N3 N 0.080840 0.540420 0.600200
H6 H 0.067400 0.533700 0.488300
C10 C 0.263580 0.631790 0.653100
C11 C 0.205100 0.602550 0.556700
H7 H 0.205000 0.602500 0.429100
C12 C 0.146740 0.573370 0.654000
C13 C 0.040500 0.520250 0.750000
N4 N 0.080840 0.540420 0.899800
H8 H 0.067400 0.533700 1.011700
C14 C 0.333400 0.666700 0.924800
H9 H 0.333400 0.666700 1.059300
C15 C 0.263580 0.631790 0.846900
C16 C 0.205100 0.602550 0.943300
H10 H 0.205000 0.602500 1.070900
C17 C 0.146740 0.573370 0.846000
N5 N 0.459580 0.540420 0.899800
H11 H 0.466300 0.533700 1.011700
C18 C 0.368210 0.631790 0.846900
C19 C 0.397450 0.602550 0.943300
H12 H 0.397500 0.602500 1.070900
C20 C 0.426630 0.573370 0.846000
N6 N 0.459580 0.919160 0.899800
H13 H 0.466300 0.932600 1.011700
C21 C 0.368210 0.736420 0.846900
C22 C 0.397450 0.794900 0.943300
H14 H 0.397500 0.795000 1.070900
C23 C 0.426630 0.853260 0.846000
O4 O 0.489380 0.510620 0.250000
N7 N 0.540420 0.459580 0.100200
H15 H 0.533700 0.466300 -0.011700
C24 C 0.666700 0.333300 0.075200
H16 H 0.666700 0.333300 -0.059300
C25 C 0.631790 0.368210 0.153100
C26 C 0.602550 0.397450 0.056700
H17 H 0.602500 0.397500 -0.070900
C27 C 0.573370 0.426630 0.154000
C28 C 0.520250 0.479750 0.250000
O5 O 0.489380 -0.021240 0.250000
N8 N 0.540420 0.080840 0.100200
H18 H 0.533700 0.067400 -0.011700
C29 C 0.631790 0.263580 0.153100
C30 C 0.602550 0.205100 0.056700
H19 H 0.602500 0.205000 -0.070900
C31 C 0.573370 0.146740 0.154000
C32 C 0.520250 0.040500 0.250000
O6 O 1.021240 0.510620 0.250000
N9 N 0.919160 0.459580 0.100200
H20 H 0.932600 0.466300 -0.011700
C33 C 0.736420 0.368210 0.153100
C34 C 0.794900 0.397450 0.056700
H21 H 0.795000 0.397500 -0.070900
C35 C 0.853260 0.426630 0.154000
C36 C 0.959500 0.479750 0.250000
N10 N 0.919160 0.459580 0.399800
H22 H 0.932600 0.466300 0.511700
C37 C 0.666600 0.333300 0.424800
H23 H 0.666600 0.333300 0.559300
C38 C 0.736420 0.368210 0.346900
C39 C 0.794900 0.397450 0.443300
H24 H 0.795000 0.397500 0.570900
C40 C 0.853260 0.426630 0.346000
N11 N 0.540420 0.459580 0.399800
H25 H 0.533700 0.466300 0.511700
C41 C 0.631790 0.368210 0.346900
C42 C 0.602550 0.397450 0.443300
H26 H 0.602500 0.397500 0.570900
C43 C 0.573370 0.426630 0.346000
N12 N 0.540420 0.080840 0.399800
H27 H 0.533700 0.067400 0.511700
C44 C 0.631790 0.263580 0.346900
C45 C 0.602550 0.205100 0.443300
H28 H 0.602500 0.205000 0.570900
C46 C 0.573370 0.146740 0.346000
loop_
_geom_bond_atom_site_label_1
_geom_bond_atom_site_label_2
_geom_bond_site_symmetry_1
_geom_bond_site_symmetry_2
O1 C5 1_555 1_555
N1 H1 1_555 1_555
N1 C4 1_555 1_555
N1 C5 1_555 1_555
C1 H2 1_555 1_555
C1 C2 1_555 1_555
C1 C6 1_555 1_555
C1 C10 1_555 1_555
C2 C3 1_555 1_555
C2 C18 1_555 1_555
C3 H3 1_555 1_555
C3 C4 1_555 1_555
C4 C20 1_555 1_555
C5 N5 1_555 1_555
O2 C9 1_555 1_555
N2 H4 1_555 1_555
N2 C8 1_555 1_555
N2 C9 1_555 1_555
C6 C7 1_555 1_555
C6 C21 1_555 1_555
C7 H5 1_555 1_555
C7 C8 1_555 1_555
C8 C23 1_555 1_555
C9 N6 1_555 1_555
O3 C13 1_555 1_555
N3 H6 1_555 1_555
N3 C12 1_555 1_555
N3 C13 1_555 1_555
C10 C11 1_555 1_555
C10 C15 1_555 1_555
C11 H7 1_555 1_555
C11 C12 1_555 1_555
C12 C17 1_555 1_555
C13 N4 1_555 1_555
N4 H8 1_555 1_555
N4 C17 1_555 1_555
C14 H9 1_555 1_555
C14 C15 1_555 1_555
C14 C18 1_555 1_555
C14 C21 1_555 1_555
C15 C16 1_555 1_555
C16 H10 1_555 1_555
C16 C17 1_555 1_555
N5 H11 1_555 1_555
N5 C20 1_555 1_555
C18 C19 1_555 1_555
C19 H12 1_555 1_555
C19 C20 1_555 1_555
N6 H13 1_555 1_555
N6 C23 1_555 1_555
C21 C22 1_555 1_555
C22 H14 1_555 1_555
C22 C23 1_555 1_555
O4 C28 1_555 1_555
N7 H15 1_555 1_555
N7 C27 1_555 1_555
N7 C28 1_555 1_555
C24 H16 1_555 1_555
C24 C25 1_555 1_555
C24 C29 1_555 1_555
C24 C33 1_555 1_555
C25 C26 1_555 1_555
C25 C41 1_555 1_555
C26 H17 1_555 1_555
C26 C27 1_555 1_555
C27 C43 1_555 1_555
C28 N11 1_555 1_555
O5 C32 1_555 1_555
N8 H18 1_555 1_555
N8 C31 1_555 1_555
N8 C32 1_555 1_555
C29 C30 1_555 1_555
C29 C44 1_555 1_555
C30 H19 1_555 1_555
C30 C31 1_555 1_555
C31 C46 1_555 1_555
C32 N12 1_555 1_555
O6 C36 1_555 1_555
N9 H20 1_555 1_555
N9 C35 1_555 1_555
N9 C36 1_555 1_555
C33 C34 1_555 1_555
C33 C38 1_555 1_555
C34 H21 1_555 1_555
C34 C35 1_555 1_555
C35 C40 1_555 1_555
C36 N10 1_555 1_555
N10 H22 1_555 1_555
N10 C40 1_555 1_555
C37 H23 1_555 1_555
C37 C38 1_555 1_555
C37 C41 1_555 1_555
C37 C44 1_555 1_555
C38 C39 1_555 1_555
C39 H24 1_555 1_555
C39 C40 1_555 1_555
N11 H25 1_555 1_555
N11 C43 1_555 1_555
C41 C42 1_555 1_555
C42 H26 1_555 1_555
C42 C43 1_555 1_555
N12 H27 1_555 1_555
N12 C46 1_555 1_555
C44 C45 1_555 1_555
C45 H28 1_555 1_555
C45 C46 1_555 1_555

#END

#######################################################################
#
#                 Cambridge Crystallographic Data Centre
#                                CCDC 
#
#######################################################################
#
# If this CIF has been generated from an entry in the Cambridge 
# Structural Database, then it will include bibliographic, chemical, 
# crystal, experimental, refinement or atomic coordinate data resulting 
# from the CCDC's data processing and validation procedures.
#
#######################################################################

data_ttbi_beta_pentane_240k
_symmetry_cell_setting           triclinic
_symmetry_space_group_name_H-M   'P 1'
_symmetry_Int_Tables_number      1
_space_group_name_Hall           'P 1'
loop_
_symmetry_equiv_pos_site_id
_symmetry_equiv_pos_as_xyz
1 x,y,z
_cell_length_a                   7.246000
_cell_length_b                   13.035518
_cell_length_c                   20.664792
_cell_angle_alpha                72.462443
_cell_angle_beta                 86.346899
_cell_angle_gamma                74.044542
_cell_volume                     1789.09
loop_
_atom_site_label
_atom_site_type_symbol
_atom_site_fract_x
_atom_site_fract_y
_atom_site_fract_z
O1 O 0.995740 0.199390 0.030630
O2 O 0.464510 1.264010 0.033890
N1 N 0.695400 1.092540 0.060800
H1 H 0.798800 1.115600 0.055400
O3 O 0.750100 0.489150 0.521990
N2 N 0.391900 1.092750 0.061730
H2 H 0.267500 1.116000 0.057200
N3 N 1.071400 0.342040 0.060450
H3 H 1.195700 0.322300 0.057100
N4 N 0.767300 0.346650 0.055460
H4 H 0.663100 0.330800 0.047900
N5 N 0.594300 0.540360 0.417360
H5 H 0.481300 0.533100 0.431100
N6 N 0.896300 0.541340 0.418090
H6 H 1.010600 0.534800 0.432400
C1 C 0.498700 0.981270 0.082170
C2 C 0.588000 0.784480 0.125140
C3 C 0.880800 0.587120 0.125260
C4 C 0.691200 0.980940 0.081880
C5 C 0.781100 0.784390 0.125480
C6 C 0.912300 0.668970 0.159480
H7 H 1.048700 0.669100 0.159900
C7 C 0.966600 0.433670 0.080790
C8 C 0.949400 0.288160 0.046710
C9 C 0.443000 0.882820 0.103210
H8 H 0.313400 0.882800 0.102600
C10 C 0.513000 1.159720 0.049940
C11 C 0.836300 0.882740 0.103220
H9 H 0.966100 0.882800 0.102600
C12 C 0.630400 0.513000 0.099630
H10 H 0.500300 0.514500 0.097700
C13 C 0.834500 0.633860 0.230940
C14 C 0.544200 0.603590 0.289670
H11 H 0.414600 0.603500 0.289300
C15 C 0.687400 0.587760 0.123970
C16 C 0.936500 0.604370 0.290890
H12 H 1.066100 0.604500 0.291400
C17 C 0.557500 0.668990 0.158150
H13 H 0.421100 0.668800 0.157600
C18 C 0.646900 0.573940 0.349790
C19 C 0.838200 0.574500 0.350450
C20 C 0.773600 0.435870 0.078310
C21 C 0.641500 0.633380 0.230090
C22 C 1.023400 0.510280 0.103520
H14 H 1.153100 0.510100 0.104100
C23 C 0.747300 0.520700 0.458570
O4 O 0.004260 0.800610 0.969370
O5 O 0.535490 -0.264010 0.966110
N7 N 0.304600 -0.092540 0.939200
H15 H 0.201200 -0.115600 0.944600
O6 O 0.249900 0.510850 0.478010
N8 N 0.608100 -0.092750 0.938270
H16 H 0.732500 -0.116000 0.942800
N9 N -0.071400 0.657960 0.939550
H17 H -0.195700 0.677700 0.942900
N10 N 0.232700 0.653350 0.944540
H18 H 0.336900 0.669200 0.952100
N11 N 0.405700 0.459640 0.582640
H19 H 0.518700 0.466900 0.568900
N12 N 0.103700 0.458660 0.581910
H20 H -0.010600 0.465200 0.567600
C24 C 0.501300 0.018730 0.917830
C25 C 0.412000 0.215520 0.874860
C26 C 0.119200 0.412880 0.874740
C27 C 0.308800 0.019060 0.918120
C28 C 0.218900 0.215610 0.874520
C29 C 0.087700 0.331030 0.840520
H21 H -0.048700 0.330900 0.840100
C30 C 0.033400 0.566330 0.919210
C31 C 0.050600 0.711840 0.953290
C32 C 0.557000 0.117180 0.896790
H22 H 0.686600 0.117200 0.897400
C33 C 0.487000 -0.159720 0.950060
C34 C 0.163700 0.117260 0.896780
H23 H 0.033900 0.117200 0.897400
C35 C 0.369600 0.487000 0.900370
H24 H 0.499700 0.485500 0.902300
C36 C 0.165500 0.366140 0.769060
C37 C 0.455800 0.396410 0.710330
H25 H 0.585400 0.396500 0.710700
C38 C 0.312600 0.412240 0.876030
C39 C 0.063500 0.395630 0.709110
H26 H -0.066100 0.395500 0.708600
C40 C 0.442500 0.331010 0.841850
H27 H 0.578900 0.331200 0.842400
C41 C 0.353100 0.426060 0.650210
C42 C 0.161800 0.425500 0.649550
C43 C 0.226400 0.564130 0.921690
C44 C 0.358500 0.366620 0.769910
C45 C -0.023400 0.489720 0.896480
H28 H -0.153100 0.489900 0.895900
C46 C 0.252700 0.479300 0.541430
loop_
_geom_bond_atom_site_label_1
_geom_bond_atom_site_label_2
_geom_bond_site_symmetry_1
_geom_bond_site_symmetry_2
O1 C8 1_555 1_555
O2 C10 1_555 1_555
N1 H1 1_555 1_555
N1 C4 1_555 1_555
N1 C10 1_555 1_555
O3 C23 1_555 1_555
N2 H2 1_555 1_555
N2 C1 1_555 1_555
N2 C10 1_555 1_555
N3 H3 1_555 1_555
N3 C7 1_555 1_555
N3 C8 1_555 1_555
N4 H4 1_555 1_555
N4 C8 1_555 1_555
N4 C20 1_555 1_555
N5 H5 1_555 1_555
N5 C18 1_555 1_555
N5 C23 1_555 1_555
N6 H6 1_555 1_555
N6 C19 1_555 1_555
N6 C23 1_555 1_555
C1 C4 1_555 1_555
C1 C9 1_555 1_555
C2 C5 1_555 1_555
C2 C9 1_555 1_555
C2 C17 1_555 1_555
C3 C6 1_555 1_555
C3 C15 1_555 1_555
C3 C22 1_555 1_555
C4 C11 1_555 1_555
C5 C6 1_555 1_555
C5 C11 1_555 1_555
C6 H7 1_555 1_555
C6 C13 1_555 1_555
C7 C20 1_555 1_555
C7 C22 1_555 1_555
C9 H8 1_555 1_555
C11 H9 1_555 1_555
C12 H10 1_555 1_555
C12 C15 1_555 1_555
C12 C20 1_555 1_555
C13 C16 1_555 1_555
C13 C21 1_555 1_555
C14 H11 1_555 1_555
C14 C18 1_555 1_555
C14 C21 1_555 1_555
C15 C17 1_555 1_555
C16 H12 1_555 1_555
C16 C19 1_555 1_555
C17 H13 1_555 1_555
C17 C21 1_555 1_555
C18 C19 1_555 1_555
C22 H14 1_555 1_555
O4 C31 1_555 1_555
O5 C33 1_555 1_555
N7 H15 1_555 1_555
N7 C27 1_555 1_555
N7 C33 1_555 1_555
O6 C46 1_555 1_555
N8 H16 1_555 1_555
N8 C24 1_555 1_555
N8 C33 1_555 1_555
N9 H17 1_555 1_555
N9 C30 1_555 1_555
N9 C31 1_555 1_555
N10 H18 1_555 1_555
N10 C31 1_555 1_555
N10 C43 1_555 1_555
N11 H19 1_555 1_555
N11 C41 1_555 1_555
N11 C46 1_555 1_555
N12 H20 1_555 1_555
N12 C42 1_555 1_555
N12 C46 1_555 1_555
C24 C27 1_555 1_555
C24 C32 1_555 1_555
C25 C28 1_555 1_555
C25 C32 1_555 1_555
C25 C40 1_555 1_555
C26 C29 1_555 1_555
C26 C38 1_555 1_555
C26 C45 1_555 1_555
C27 C34 1_555 1_555
C28 C29 1_555 1_555
C28 C34 1_555 1_555
C29 H21 1_555 1_555
C29 C36 1_555 1_555
C30 C43 1_555 1_555
C30 C45 1_555 1_555
C32 H22 1_555 1_555
C34 H23 1_555 1_555
C35 H24 1_555 1_555
C35 C38 1_555 1_555
C35 C43 1_555 1_555
C36 C39 1_555 1_555
C36 C44 1_555 1_555
C37 H25 1_555 1_555
C37 C41 1_555 1_555
C37 C44 1_555 1_555
C38 C40 1_555 1_555
C39 H26 1_555 1_555
C39 C42 1_555 1_555
C40 H27 1_555 1_555
C40 C44 1_555 1_555
C41 C42 1_555 1_555
C45 H28 1_555 1_555

#END

#######################################################################
#
#                 Cambridge Crystallographic Data Centre
#                                CCDC 
#
#######################################################################
#
# If this CIF has been generated from an entry in the Cambridge 
# Structural Database, then it will include bibliographic, chemical, 
# crystal, experimental, refinement or atomic coordinate data resulting 
# from the CCDC's data processing and validation procedures.
#
#######################################################################

data_t2_b_post_sorption_293k
_symmetry_cell_setting           triclinic
_symmetry_space_group_name_H-M   'P 1'
_symmetry_Int_Tables_number      1
_space_group_name_Hall           'P 1'
loop_
_symmetry_equiv_pos_site_id
_symmetry_equiv_pos_as_xyz
1 x,y,z
_cell_length_a                   7.252300
_cell_length_b                   13.028708
_cell_length_c                   20.693658
_cell_angle_alpha                72.684209
_cell_angle_beta                 86.536941
_cell_angle_gamma                73.883452
_cell_volume                     1792.8
loop_
_atom_site_label
_atom_site_type_symbol
_atom_site_fract_x
_atom_site_fract_y
_atom_site_fract_z
O1 O 1.043200 -0.263400 0.465800
O2 O 0.749600 0.511200 -0.022000
O3 O 0.512800 0.801800 0.469300
N1 N 0.809600 -0.091400 0.438700
H1 H 0.707400 -0.113900 0.444200
N2 N 1.114100 -0.091900 0.438700
H2 H 1.236800 -0.115100 0.444300
N3 N 0.605200 0.458100 0.081800
H3 H 0.492500 0.463900 0.067800
N4 N 0.908100 0.460300 0.082300
H4 H 1.019500 0.467200 0.068600
N5 N 0.434300 0.659400 0.439800
H5 H 0.311700 0.679200 0.443600
N6 N 0.739500 0.654000 0.444600
H6 H 0.842500 0.669200 0.452400
C1 C 0.949500 0.332000 0.341000
H7 H 1.084700 0.331800 0.341400
C2 C 0.917300 0.216500 0.374600
C3 C 0.725500 0.215500 0.373900
C4 C 0.591900 0.332900 0.339900
H8 H 0.456600 0.333500 0.339400
C5 C 1.063200 0.118300 0.396500
H9 H 1.191400 0.118200 0.397100
C6 C 1.006700 0.019600 0.417500
C7 C 0.816900 0.019300 0.417300
C8 C 0.670200 0.117900 0.396200
H10 H 0.541900 0.118000 0.397000
C9 C 0.992800 -0.157300 0.449100
C10 C 0.862800 0.367800 0.269800
C11 C 0.960100 0.396800 0.210000
H11 H 1.088800 0.395900 0.210200
C12 C 0.856400 0.427100 0.150400
C13 C 0.665100 0.425100 0.149600
C14 C 0.567600 0.397400 0.208500
H12 H 0.438600 0.399300 0.207800
C15 C 0.670600 0.366400 0.269400
C16 C 0.753800 0.480000 0.041400
C17 C 0.819400 0.413000 0.376100
C18 C 0.876700 0.487800 0.399200
H13 H 1.005000 0.487400 0.400000
C19 C 0.731300 0.565300 0.421600
C20 C 0.541200 0.566200 0.419000
C21 C 0.483100 0.490400 0.396600
H14 H 0.354800 0.490700 0.396200
C22 C 0.626500 0.413300 0.374400
C23 C 0.559500 0.711800 0.452600
O4 O -0.043200 1.263400 0.534200
O5 O 0.250400 0.488800 1.022000
O6 O 0.487200 0.198200 0.530700
N7 N 0.190400 1.091400 0.561300
H15 H 0.292600 1.113900 0.555800
N8 N -0.114100 1.091900 0.561300
H16 H -0.236800 1.115100 0.555700
N9 N 0.394800 0.541900 0.918200
H17 H 0.507500 0.536100 0.932200
N10 N 0.091900 0.539700 0.917700
H18 H -0.019500 0.532800 0.931400
N11 N 0.565700 0.340600 0.560200
H19 H 0.688300 0.320800 0.556400
N12 N 0.260500 0.346000 0.555400
H20 H 0.157500 0.330800 0.547600
C24 C 0.050500 0.668000 0.659000
H21 H -0.084700 0.668200 0.658600
C25 C 0.082700 0.783500 0.625400
C26 C 0.274500 0.784500 0.626100
C27 C 0.408100 0.667100 0.660100
H22 H 0.543400 0.666500 0.660600
C28 C -0.063200 0.881700 0.603500
H23 H -0.191400 0.881800 0.602900
C29 C -0.006700 0.980400 0.582500
C30 C 0.183100 0.980700 0.582700
C31 C 0.329800 0.882100 0.603800
H24 H 0.458100 0.882000 0.603000
C32 C 0.007200 1.157300 0.550900
C33 C 0.137200 0.632200 0.730200
C34 C 0.039900 0.603200 0.790000
H25 H -0.088800 0.604100 0.789800
C35 C 0.143600 0.572900 0.849600
C36 C 0.334900 0.574900 0.850400
C37 C 0.432400 0.602600 0.791500
H26 H 0.561400 0.600700 0.792200
C38 C 0.329400 0.633600 0.730600
C39 C 0.246200 0.520000 0.958600
C40 C 0.180600 0.587000 0.623900
C41 C 0.123300 0.512200 0.600800
H27 H -0.005000 0.512600 0.600000
C42 C 0.268700 0.434700 0.578400
C43 C 0.458800 0.433800 0.581000
C44 C 0.516900 0.509600 0.603400
H28 H 0.645200 0.509300 0.603800
C45 C 0.373500 0.586700 0.625600
C46 C 0.440500 0.288200 0.547400
loop_
_geom_bond_atom_site_label_1
_geom_bond_atom_site_label_2
_geom_bond_site_symmetry_1
_geom_bond_site_symmetry_2
O1 C9 1_555 1_555
O2 C16 1_555 1_555
O3 C23 1_555 1_555
N1 H1 1_555 1_555
N1 C7 1_555 1_555
N1 C9 1_555 1_555
N2 H2 1_555 1_555
N2 C6 1_555 1_555
N2 C9 1_555 1_555
N3 H3 1_555 1_555
N3 C13 1_555 1_555
N3 C16 1_555 1_555
N4 H4 1_555 1_555
N4 C12 1_555 1_555
N4 C16 1_555 1_555
N5 H5 1_555 1_555
N5 C20 1_555 1_555
N5 C23 1_555 1_555
N6 H6 1_555 1_555
N6 C19 1_555 1_555
N6 C23 1_555 1_555
C1 H7 1_555 1_555
C1 C2 1_555 1_555
C1 C10 1_555 1_555
C1 C17 1_555 1_555
C2 C3 1_555 1_555
C2 C5 1_555 1_555
C3 C4 1_555 1_555
C3 C8 1_555 1_555
C4 H8 1_555 1_555
C4 C15 1_555 1_555
C4 C22 1_555 1_555
C5 H9 1_555 1_555
C5 C6 1_555 1_555
C6 C7 1_555 1_555
C7 C8 1_555 1_555
C8 H10 1_555 1_555
C10 C11 1_555 1_555
C10 C15 1_555 1_555
C11 H11 1_555 1_555
C11 C12 1_555 1_555
C12 C13 1_555 1_555
C13 C14 1_555 1_555
C14 H12 1_555 1_555
C14 C15 1_555 1_555
C17 C18 1_555 1_555
C17 C22 1_555 1_555
C18 H13 1_555 1_555
C18 C19 1_555 1_555
C19 C20 1_555 1_555
C20 C21 1_555 1_555
C21 H14 1_555 1_555
C21 C22 1_555 1_555
O4 C32 1_555 1_555
O5 C39 1_555 1_555
O6 C46 1_555 1_555
N7 H15 1_555 1_555
N7 C30 1_555 1_555
N7 C32 1_555 1_555
N8 H16 1_555 1_555
N8 C29 1_555 1_555
N8 C32 1_555 1_555
N9 H17 1_555 1_555
N9 C36 1_555 1_555
N9 C39 1_555 1_555
N10 H18 1_555 1_555
N10 C35 1_555 1_555
N10 C39 1_555 1_555
N11 H19 1_555 1_555
N11 C43 1_555 1_555
N11 C46 1_555 1_555
N12 H20 1_555 1_555
N12 C42 1_555 1_555
N12 C46 1_555 1_555
C24 H21 1_555 1_555
C24 C25 1_555 1_555
C24 C33 1_555 1_555
C24 C40 1_555 1_555
C25 C26 1_555 1_555
C25 C28 1_555 1_555
C26 C27 1_555 1_555
C26 C31 1_555 1_555
C27 H22 1_555 1_555
C27 C38 1_555 1_555
C27 C45 1_555 1_555
C28 H23 1_555 1_555
C28 C29 1_555 1_555
C29 C30 1_555 1_555
C30 C31 1_555 1_555
C31 H24 1_555 1_555
C33 C34 1_555 1_555
C33 C38 1_555 1_555
C34 H25 1_555 1_555
C34 C35 1_555 1_555
C35 C36 1_555 1_555
C36 C37 1_555 1_555
C37 H26 1_555 1_555
C37 C38 1_555 1_555
C40 C41 1_555 1_555
C40 C45 1_555 1_555
C41 H27 1_555 1_555
C41 C42 1_555 1_555
C42 C43 1_555 1_555
C43 C44 1_555 1_555
C44 H28 1_555 1_555
C44 C45 1_555 1_555

#END

#######################################################################
#
#                 Cambridge Crystallographic Data Centre
#                                CCDC 
#
#######################################################################
#
# If this CIF has been generated from an entry in the Cambridge 
# Structural Database, then it will include bibliographic, chemical, 
# crystal, experimental, refinement or atomic coordinate data resulting 
# from the CCDC's data processing and validation procedures.
#
#######################################################################

data_T2-alpha_NMP_240k
_symmetry_cell_setting           triclinic
_symmetry_space_group_name_H-M   'P 1'
_symmetry_Int_Tables_number      1
_space_group_name_Hall           'P 1'
loop_
_symmetry_equiv_pos_site_id
_symmetry_equiv_pos_as_xyz
1 x,y,z
_cell_length_a                   22.324900
_cell_length_b                   22.316667
_cell_length_c                   7.333333
_cell_angle_alpha                90.000000
_cell_angle_beta                 90.000000
_cell_angle_gamma                90.000000
_cell_volume                     3653.59
loop_
_atom_site_label
_atom_site_type_symbol
_atom_site_fract_x
_atom_site_fract_y
_atom_site_fract_z
O1 O 0.434900 0.470500 0.500000
O2 O 0.975800 0.355700 0.500000
N1 N 0.500200 0.403900 0.647600
H1 H 0.490700 0.411000 0.760700
O3 O 0.650500 -0.064000 0.500000
N2 N 0.887700 0.329800 0.648300
H2 H 0.899700 0.333100 0.760700
N3 N 0.651300 0.028200 0.649800
H3 H 0.650500 0.015900 0.762400
C1 C 0.623200 0.295000 0.595300
C2 C 0.543300 0.364700 0.592400
C3 C 0.663200 0.193000 0.595000
C4 C 0.671900 0.254600 0.675700
H4 H 0.671500 0.254300 0.810700
C5 C 0.473800 0.430500 0.500000
C6 C 0.730600 0.277000 0.598600
C7 C 0.584000 0.330000 0.692100
H5 H 0.584400 0.330600 0.820200
C8 C 0.653700 0.088100 0.594600
C9 C 0.921500 0.340800 0.500000
C10 C 0.658600 0.140200 0.690900
H6 H 0.658800 0.140100 0.819000
C11 C 0.830400 0.312300 0.593700
C12 C 0.780200 0.294800 0.696200
H7 H 0.780400 0.295200 0.824400
C13 C 0.650500 -0.007800 0.500000
N4 N 0.500200 0.403900 0.352400
H8 H 0.490700 0.411000 0.239300
N5 N 0.887700 0.329800 0.351700
H9 H 0.899700 0.333100 0.239300
N6 N 0.651300 0.028200 0.350200
H10 H 0.650500 0.015900 0.237600
C14 C 0.623200 0.295000 0.404700
C15 C 0.543300 0.364700 0.407600
C16 C 0.663200 0.193000 0.405000
C17 C 0.671900 0.254600 0.324300
H11 H 0.671500 0.254300 0.189300
C18 C 0.730600 0.277000 0.401400
C19 C 0.584000 0.330000 0.307900
H12 H 0.584400 0.330600 0.179800
C20 C 0.653700 0.088100 0.405400
C21 C 0.658600 0.140200 0.309100
H13 H 0.658800 0.140100 0.181000
C22 C 0.830400 0.312300 0.406300
C23 C 0.780200 0.294800 0.303800
H14 H 0.780400 0.295200 0.175600
O4 O 0.565100 0.529500 0.500000
O5 O 0.024200 0.644300 0.500000
N7 N 0.499800 0.596100 0.647600
H15 H 0.509300 0.589000 0.760700
O6 O 0.349500 1.064000 0.500000
N8 N 0.112300 0.670200 0.648300
H16 H 0.100300 0.666900 0.760700
N9 N 0.348700 0.971800 0.649800
H17 H 0.349500 0.984100 0.762400
C24 C 0.376800 0.705000 0.595300
C25 C 0.456700 0.635300 0.592400
C26 C 0.336800 0.807000 0.595000
C27 C 0.328100 0.745400 0.675700
H18 H 0.328500 0.745700 0.810700
C28 C 0.526200 0.569500 0.500000
C29 C 0.269400 0.723000 0.598600
C30 C 0.416000 0.670000 0.692100
H19 H 0.415600 0.669400 0.820200
C31 C 0.346300 0.911900 0.594600
C32 C 0.078500 0.659200 0.500000
C33 C 0.341400 0.859800 0.690900
H20 H 0.341200 0.859900 0.819000
C34 C 0.169600 0.687700 0.593700
C35 C 0.219800 0.705200 0.696200
H21 H 0.219600 0.704800 0.824400
C36 C 0.349500 1.007800 0.500000
N10 N 0.499800 0.596100 0.352400
H22 H 0.509300 0.589000 0.239300
N11 N 0.112300 0.670200 0.351700
H23 H 0.100300 0.666900 0.239300
N12 N 0.348700 0.971800 0.350200
H24 H 0.349500 0.984100 0.237600
C37 C 0.376800 0.705000 0.404700
C38 C 0.456700 0.635300 0.407600
C39 C 0.336800 0.807000 0.405000
C40 C 0.328100 0.745400 0.324300
H25 H 0.328500 0.745700 0.189300
C41 C 0.269400 0.723000 0.401400
C42 C 0.416000 0.670000 0.307900
H26 H 0.415600 0.669400 0.179800
C43 C 0.346300 0.911900 0.405400
C44 C 0.341400 0.859800 0.309100
H27 H 0.341200 0.859900 0.181000
C45 C 0.169600 0.687700 0.406300
C46 C 0.219800 0.705200 0.303800
H28 H 0.219600 0.704800 0.175600
O7 O 0.529500 0.434900 1.000000
O8 O 0.644300 0.975800 1.000000
N13 N 0.596100 0.500200 1.147600
H29 H 0.589000 0.490700 1.260700
O9 O 1.064000 0.650500 1.000000
N14 N 0.670200 0.887700 1.148300
H30 H 0.666900 0.899700 1.260700
N15 N 0.971800 0.651300 1.149800
H31 H 0.984100 0.650500 1.262400
C47 C 0.705000 0.623200 1.095300
C48 C 0.635300 0.543300 1.092400
C49 C 0.807000 0.663200 1.095000
C50 C 0.745400 0.671900 1.175700
H32 H 0.745700 0.671500 1.310700
C51 C 0.569500 0.473800 1.000000
C52 C 0.723000 0.730600 1.098600
C53 C 0.670000 0.584000 1.192100
H33 H 0.669400 0.584400 1.320200
C54 C 0.911900 0.653700 1.094600
C55 C 0.659200 0.921500 1.000000
C56 C 0.859800 0.658600 1.190900
H34 H 0.859900 0.658800 1.319000
C57 C 0.687700 0.830400 1.093700
C58 C 0.705200 0.780200 1.196200
H35 H 0.704800 0.780400 1.324400
C59 C 1.007800 0.650500 1.000000
N16 N 0.596100 0.500200 0.852400
H36 H 0.589000 0.490700 0.739300
N17 N 0.670200 0.887700 0.851700
H37 H 0.666900 0.899700 0.739300
N18 N 0.971800 0.651300 0.850200
H38 H 0.984100 0.650500 0.737600
C60 C 0.705000 0.623200 0.904700
C61 C 0.635300 0.543300 0.907600
C62 C 0.807000 0.663200 0.905000
C63 C 0.745400 0.671900 0.824300
H39 H 0.745700 0.671500 0.689300
C64 C 0.723000 0.730600 0.901400
C65 C 0.670000 0.584000 0.807900
H40 H 0.669400 0.584400 0.679800
C66 C 0.911900 0.653700 0.905400
C67 C 0.859800 0.658600 0.809100
H41 H 0.859900 0.658800 0.681000
C68 C 0.687700 0.830400 0.906300
C69 C 0.705200 0.780200 0.803800
H42 H 0.704800 0.780400 0.675600
O10 O 0.470500 0.565100 1.000000
O11 O 0.355700 0.024200 1.000000
N19 N 0.403900 0.499800 1.147600
H43 H 0.411000 0.509300 1.260700
O12 O -0.064000 0.349500 1.000000
N20 N 0.329800 0.112300 1.148300
H44 H 0.333100 0.100300 1.260700
N21 N 0.028200 0.348700 1.149800
H45 H 0.015900 0.349500 1.262400
C70 C 0.295000 0.376800 1.095300
C71 C 0.364700 0.456700 1.092400
C72 C 0.193000 0.336800 1.095000
C73 C 0.254600 0.328100 1.175700
H46 H 0.254300 0.328500 1.310700
C74 C 0.430500 0.526200 1.000000
C75 C 0.277000 0.269400 1.098600
C76 C 0.330000 0.416000 1.192100
H47 H 0.330600 0.415600 1.320200
C77 C 0.088100 0.346300 1.094600
C78 C 0.340800 0.078500 1.000000
C79 C 0.140200 0.341400 1.190900
H48 H 0.140100 0.341200 1.319000
C80 C 0.312300 0.169600 1.093700
C81 C 0.294800 0.219800 1.196200
H49 H 0.295200 0.219600 1.324400
C82 C -0.007800 0.349500 1.000000
N22 N 0.403900 0.499800 0.852400
H50 H 0.411000 0.509300 0.739300
N23 N 0.329800 0.112300 0.851700
H51 H 0.333100 0.100300 0.739300
N24 N 0.028200 0.348700 0.850200
H52 H 0.015900 0.349500 0.737600
C83 C 0.295000 0.376800 0.904700
C84 C 0.364700 0.456700 0.907600
C85 C 0.193000 0.336800 0.905000
C86 C 0.254600 0.328100 0.824300
H53 H 0.254300 0.328500 0.689300
C87 C 0.277000 0.269400 0.901400
C88 C 0.330000 0.416000 0.807900
H54 H 0.330600 0.415600 0.679800
C89 C 0.088100 0.346300 0.905400
C90 C 0.140200 0.341400 0.809100
H55 H 0.140100 0.341200 0.681000
C91 C 0.312300 0.169600 0.906300
C92 C 0.294800 0.219800 0.803800
H56 H 0.295200 0.219600 0.675600
loop_
_geom_bond_atom_site_label_1
_geom_bond_atom_site_label_2
_geom_bond_site_symmetry_1
_geom_bond_site_symmetry_2
O1 C5 1_555 1_555
O2 C9 1_555 1_555
N1 H1 1_555 1_555
N1 C2 1_555 1_555
N1 C5 1_555 1_555
O3 C13 1_555 1_555
N2 H2 1_555 1_555
N2 C9 1_555 1_555
N2 C11 1_555 1_555
N3 H3 1_555 1_555
N3 C8 1_555 1_555
N3 C13 1_555 1_555
C1 C4 1_555 1_555
C1 C7 1_555 1_555
C1 C14 1_555 1_555
C2 C7 1_555 1_555
C2 C15 1_555 1_555
C3 C4 1_555 1_555
C3 C10 1_555 1_555
C3 C16 1_555 1_555
C4 H4 1_555 1_555
C4 C6 1_555 1_555
C5 N4 1_555 1_555
C6 C12 1_555 1_555
C6 C18 1_555 1_555
C7 H5 1_555 1_555
C8 C10 1_555 1_555
C8 C20 1_555 1_555
C9 N5 1_555 1_555
C10 H6 1_555 1_555
C11 C12 1_555 1_555
C11 C22 1_555 1_555
C12 H7 1_555 1_555
C13 N6 1_555 1_555
N4 H8 1_555 1_555
N4 C15 1_555 1_555
N5 H9 1_555 1_555
N5 C22 1_555 1_555
N6 H10 1_555 1_555
N6 C20 1_555 1_555
C14 C17 1_555 1_555
C14 C19 1_555 1_555
C15 C19 1_555 1_555
C16 C17 1_555 1_555
C16 C21 1_555 1_555
C17 H11 1_555 1_555
C17 C18 1_555 1_555
C18 C23 1_555 1_555
C19 H12 1_555 1_555
C20 C21 1_555 1_555
C21 H13 1_555 1_555
C22 C23 1_555 1_555
C23 H14 1_555 1_555
O4 C28 1_555 1_555
O5 C32 1_555 1_555
N7 H15 1_555 1_555
N7 C25 1_555 1_555
N7 C28 1_555 1_555
O6 C36 1_555 1_555
N8 H16 1_555 1_555
N8 C32 1_555 1_555
N8 C34 1_555 1_555
N9 H17 1_555 1_555
N9 C31 1_555 1_555
N9 C36 1_555 1_555
C24 C27 1_555 1_555
C24 C30 1_555 1_555
C24 C37 1_555 1_555
C25 C30 1_555 1_555
C25 C38 1_555 1_555
C26 C27 1_555 1_555
C26 C33 1_555 1_555
C26 C39 1_555 1_555
C27 H18 1_555 1_555
C27 C29 1_555 1_555
C28 N10 1_555 1_555
C29 C35 1_555 1_555
C29 C41 1_555 1_555
C30 H19 1_555 1_555
C31 C33 1_555 1_555
C31 C43 1_555 1_555
C32 N11 1_555 1_555
C33 H20 1_555 1_555
C34 C35 1_555 1_555
C34 C45 1_555 1_555
C35 H21 1_555 1_555
C36 N12 1_555 1_555
N10 H22 1_555 1_555
N10 C38 1_555 1_555
N11 H23 1_555 1_555
N11 C45 1_555 1_555
N12 H24 1_555 1_555
N12 C43 1_555 1_555
C37 C40 1_555 1_555
C37 C42 1_555 1_555
C38 C42 1_555 1_555
C39 C40 1_555 1_555
C39 C44 1_555 1_555
C40 H25 1_555 1_555
C40 C41 1_555 1_555
C41 C46 1_555 1_555
C42 H26 1_555 1_555
C43 C44 1_555 1_555
C44 H27 1_555 1_555
C45 C46 1_555 1_555
C46 H28 1_555 1_555
O7 C51 1_555 1_555
O8 C55 1_555 1_555
N13 H29 1_555 1_555
N13 C48 1_555 1_555
N13 C51 1_555 1_555
O9 C59 1_555 1_555
N14 H30 1_555 1_555
N14 C55 1_555 1_555
N14 C57 1_555 1_555
N15 H31 1_555 1_555
N15 C54 1_555 1_555
N15 C59 1_555 1_555
C47 C50 1_555 1_555
C47 C53 1_555 1_555
C47 C60 1_555 1_555
C48 C53 1_555 1_555
C48 C61 1_555 1_555
C49 C50 1_555 1_555
C49 C56 1_555 1_555
C49 C62 1_555 1_555
C50 H32 1_555 1_555
C50 C52 1_555 1_555
C51 N16 1_555 1_555
C52 C58 1_555 1_555
C52 C64 1_555 1_555
C53 H33 1_555 1_555
C54 C56 1_555 1_555
C54 C66 1_555 1_555
C55 N17 1_555 1_555
C56 H34 1_555 1_555
C57 C58 1_555 1_555
C57 C68 1_555 1_555
C58 H35 1_555 1_555
C59 N18 1_555 1_555
N16 H36 1_555 1_555
N16 C61 1_555 1_555
N17 H37 1_555 1_555
N17 C68 1_555 1_555
N18 H38 1_555 1_555
N18 C66 1_555 1_555
C60 C63 1_555 1_555
C60 C65 1_555 1_555
C61 C65 1_555 1_555
C62 C63 1_555 1_555
C62 C67 1_555 1_555
C63 H39 1_555 1_555
C63 C64 1_555 1_555
C64 C69 1_555 1_555
C65 H40 1_555 1_555
C66 C67 1_555 1_555
C67 H41 1_555 1_555
C68 C69 1_555 1_555
C69 H42 1_555 1_555
O10 C74 1_555 1_555
O11 C78 1_555 1_555
N19 H43 1_555 1_555
N19 C71 1_555 1_555
N19 C74 1_555 1_555
O12 C82 1_555 1_555
N20 H44 1_555 1_555
N20 C78 1_555 1_555
N20 C80 1_555 1_555
N21 H45 1_555 1_555
N21 C77 1_555 1_555
N21 C82 1_555 1_555
C70 C73 1_555 1_555
C70 C76 1_555 1_555
C70 C83 1_555 1_555
C71 C76 1_555 1_555
C71 C84 1_555 1_555
C72 C73 1_555 1_555
C72 C79 1_555 1_555
C72 C85 1_555 1_555
C73 H46 1_555 1_555
C73 C75 1_555 1_555
C74 N22 1_555 1_555
C75 C81 1_555 1_555
C75 C87 1_555 1_555
C76 H47 1_555 1_555
C77 C79 1_555 1_555
C77 C89 1_555 1_555
C78 N23 1_555 1_555
C79 H48 1_555 1_555
C80 C81 1_555 1_555
C80 C91 1_555 1_555
C81 H49 1_555 1_555
C82 N24 1_555 1_555
N22 H50 1_555 1_555
N22 C84 1_555 1_555
N23 H51 1_555 1_555
N23 C91 1_555 1_555
N24 H52 1_555 1_555
N24 C89 1_555 1_555
C83 C86 1_555 1_555
C83 C88 1_555 1_555
C84 C88 1_555 1_555
C85 C86 1_555 1_555
C85 C90 1_555 1_555
C86 H53 1_555 1_555
C86 C87 1_555 1_555
C87 C92 1_555 1_555
C88 H54 1_555 1_555
C89 C90 1_555 1_555
C90 H55 1_555 1_555
C91 C92 1_555 1_555
C92 H56 1_555 1_555

#END

#######################################################################
#
#                 Cambridge Crystallographic Data Centre
#                                CCDC 
#
#######################################################################
#
# If this CIF has been generated from an entry in the Cambridge 
# Structural Database, then it will include bibliographic, chemical, 
# crystal, experimental, refinement or atomic coordinate data resulting 
# from the CCDC's data processing and validation procedures.
#
#######################################################################

data_t2_d_acetone_240k
_symmetry_cell_setting           triclinic
_symmetry_space_group_name_H-M   'P 1'
_symmetry_Int_Tables_number      1
_space_group_name_Hall           'P 1'
loop_
_symmetry_equiv_pos_site_id
_symmetry_equiv_pos_as_xyz
1 x,y,z
_cell_length_a                   21.486863
_cell_length_b                   7.283333
_cell_length_c                   14.906002
_cell_angle_alpha                90.000000
_cell_angle_beta                 81.687655
_cell_angle_gamma                90.000000
_cell_volume                     2308.22
loop_
_atom_site_label
_atom_site_type_symbol
_atom_site_fract_x
_atom_site_fract_y
_atom_site_fract_z
O1 O 1.097100 0.500000 0.844300
O2 O 0.526100 0.500000 0.706700
O3 O 0.576400 0.500000 1.416200
N1 N 1.002500 0.649300 0.888300
H1 H 1.015200 0.762700 0.883500
N2 N 0.601500 0.649200 0.777100
H2 H 0.593200 0.762600 0.764900
N3 N 0.643000 0.649700 1.304200
H3 H 0.637000 0.763000 1.321900
C1 C 1.040400 0.500000 0.870400
C2 C 0.940500 0.594800 0.915500
C3 C 0.886700 0.694000 0.938900
H4 H 0.887000 0.823000 0.940000
C4 C 0.832300 0.595500 0.960500
C5 C 0.766600 0.676400 0.988100
H5 H 0.766400 0.812300 0.988200
C6 C 0.725500 0.594900 0.923400
C7 C 0.687400 0.695100 0.873500
H6 H 0.688800 0.824000 0.870900
C8 C 0.647300 0.594200 0.827500
C9 C 0.571000 0.500000 0.749400
C10 C 0.740100 0.595900 1.078800
C11 C 0.711400 0.694600 1.153200
H7 H 0.713000 0.823500 1.154400
C12 C 0.679900 0.594700 1.226900
C13 C 0.616700 0.500000 1.349800
N4 N 1.002500 0.350700 0.888300
H8 H 1.015200 0.237300 0.883500
N5 N 0.601500 0.350800 0.777100
H9 H 0.593200 0.237400 0.764900
N6 N 0.643000 0.350300 1.304200
H10 H 0.637000 0.237000 1.321900
C14 C 0.940500 0.405200 0.915500
C15 C 0.886700 0.306000 0.938900
H11 H 0.887000 0.177000 0.940000
C16 C 0.832300 0.404500 0.960500
C17 C 0.766600 0.323600 0.988100
H12 H 0.766400 0.187700 0.988200
C18 C 0.725500 0.405100 0.923400
C19 C 0.687400 0.304900 0.873500
H13 H 0.688800 0.176000 0.870900
C20 C 0.647300 0.405800 0.827500
C21 C 0.740100 0.404100 1.078800
C22 C 0.711400 0.305400 1.153200
H14 H 0.713000 0.176500 1.154400
C23 C 0.679900 0.405300 1.226900
O4 O -0.097100 0.500000 0.155700
O5 O 0.473900 0.500000 0.293300
O6 O 0.423600 0.500000 -0.416200
N7 N -0.002500 0.649300 0.111700
H15 H -0.015200 0.762700 0.116500
N8 N 0.398500 0.649200 0.222900
H16 H 0.406800 0.762600 0.235100
N9 N 0.357000 0.649700 -0.304200
H17 H 0.363000 0.763000 -0.321900
C24 C -0.040400 0.500000 0.129600
C25 C 0.059500 0.594800 0.084500
C26 C 0.113300 0.694000 0.061100
H18 H 0.113000 0.823000 0.060000
C27 C 0.167700 0.595500 0.039500
C28 C 0.233400 0.676400 0.011900
H19 H 0.233600 0.812300 0.011800
C29 C 0.274500 0.594900 0.076600
C30 C 0.312600 0.695100 0.126500
H20 H 0.311200 0.824000 0.129100
C31 C 0.352700 0.594200 0.172500
C32 C 0.429000 0.500000 0.250600
C33 C 0.259900 0.595900 -0.078800
C34 C 0.288600 0.694600 -0.153200
H21 H 0.287000 0.823500 -0.154400
C35 C 0.320100 0.594700 -0.226900
C36 C 0.383300 0.500000 -0.349800
N10 N -0.002500 0.350700 0.111700
H22 H -0.015200 0.237300 0.116500
N11 N 0.398500 0.350800 0.222900
H23 H 0.406800 0.237400 0.235100
N12 N 0.357000 0.350300 -0.304200
H24 H 0.363000 0.237000 -0.321900
C37 C 0.059500 0.405200 0.084500
C38 C 0.113300 0.306000 0.061100
H25 H 0.113000 0.177000 0.060000
C39 C 0.167700 0.404500 0.039500
C40 C 0.233400 0.323600 0.011900
H26 H 0.233600 0.187700 0.011800
C41 C 0.274500 0.405100 0.076600
C42 C 0.312600 0.304900 0.126500
H27 H 0.311200 0.176000 0.129100
C43 C 0.352700 0.405800 0.172500
C44 C 0.259900 0.404100 -0.078800
C45 C 0.288600 0.305400 -0.153200
H28 H 0.287000 0.176500 -0.154400
C46 C 0.320100 0.405300 -0.226900
O7 O 0.597100 1.000000 0.344300
O8 O 0.026100 1.000000 0.206700
O9 O 0.076400 1.000000 0.916200
N13 N 0.502500 1.149300 0.388300
H29 H 0.515200 1.262700 0.383500
N14 N 0.101500 1.149200 0.277100
H30 H 0.093200 1.262600 0.264900
N15 N 0.143000 1.149700 0.804200
H31 H 0.137000 1.263000 0.821900
C47 C 0.540400 1.000000 0.370400
C48 C 0.440500 1.094800 0.415500
C49 C 0.386700 1.194000 0.438900
H32 H 0.387000 1.323000 0.440000
C50 C 0.332300 1.095500 0.460500
C51 C 0.266600 1.176400 0.488100
H33 H 0.266400 1.312300 0.488200
C52 C 0.225500 1.094900 0.423400
C53 C 0.187400 1.195100 0.373500
H34 H 0.188800 1.324000 0.370900
C54 C 0.147300 1.094200 0.327500
C55 C 0.071000 1.000000 0.249400
C56 C 0.240100 1.095900 0.578800
C57 C 0.211400 1.194600 0.653200
H35 H 0.213000 1.323500 0.654400
C58 C 0.179900 1.094700 0.726900
C59 C 0.116700 1.000000 0.849800
N16 N 0.502500 0.850700 0.388300
H36 H 0.515200 0.737300 0.383500
N17 N 0.101500 0.850800 0.277100
H37 H 0.093200 0.737400 0.264900
N18 N 0.143000 0.850300 0.804200
H38 H 0.137000 0.737000 0.821900
C60 C 0.440500 0.905200 0.415500
C61 C 0.386700 0.806000 0.438900
H39 H 0.387000 0.677000 0.440000
C62 C 0.332300 0.904500 0.460500
C63 C 0.266600 0.823600 0.488100
H40 H 0.266400 0.687700 0.488200
C64 C 0.225500 0.905100 0.423400
C65 C 0.187400 0.804900 0.373500
H41 H 0.188800 0.676000 0.370900
C66 C 0.147300 0.905800 0.327500
C67 C 0.240100 0.904100 0.578800
C68 C 0.211400 0.805400 0.653200
H42 H 0.213000 0.676500 0.654400
C69 C 0.179900 0.905300 0.726900
O10 O 0.402900 1.000000 0.655700
O11 O 0.973900 1.000000 0.793300
O12 O 0.923600 1.000000 0.083800
N19 N 0.497500 1.149300 0.611700
H43 H 0.484800 1.262700 0.616500
N20 N 0.898500 1.149200 0.722900
H44 H 0.906800 1.262600 0.735100
N21 N 0.857000 1.149700 0.195800
H45 H 0.863000 1.263000 0.178100
C70 C 0.459600 1.000000 0.629600
C71 C 0.559500 1.094800 0.584500
C72 C 0.613300 1.194000 0.561100
H46 H 0.613000 1.323000 0.560000
C73 C 0.667700 1.095500 0.539500
C74 C 0.733400 1.176400 0.511900
H47 H 0.733600 1.312300 0.511800
C75 C 0.774500 1.094900 0.576600
C76 C 0.812600 1.195100 0.626500
H48 H 0.811200 1.324000 0.629100
C77 C 0.852700 1.094200 0.672500
C78 C 0.929000 1.000000 0.750600
C79 C 0.759900 1.095900 0.421200
C80 C 0.788600 1.194600 0.346800
H49 H 0.787000 1.323500 0.345600
C81 C 0.820100 1.094700 0.273100
C82 C 0.883300 1.000000 0.150200
N22 N 0.497500 0.850700 0.611700
H50 H 0.484800 0.737300 0.616500
N23 N 0.898500 0.850800 0.722900
H51 H 0.906800 0.737400 0.735100
N24 N 0.857000 0.850300 0.195800
H52 H 0.863000 0.737000 0.178100
C83 C 0.559500 0.905200 0.584500
C84 C 0.613300 0.806000 0.561100
H53 H 0.613000 0.677000 0.560000
C85 C 0.667700 0.904500 0.539500
C86 C 0.733400 0.823600 0.511900
H54 H 0.733600 0.687700 0.511800
C87 C 0.774500 0.905100 0.576600
C88 C 0.812600 0.804900 0.626500
H55 H 0.811200 0.676000 0.629100
C89 C 0.852700 0.905800 0.672500
C90 C 0.759900 0.904100 0.421200
C91 C 0.788600 0.805400 0.346800
H56 H 0.787000 0.676500 0.345600
C92 C 0.820100 0.905300 0.273100
loop_
_geom_bond_atom_site_label_1
_geom_bond_atom_site_label_2
_geom_bond_site_symmetry_1
_geom_bond_site_symmetry_2
O1 C1 1_555 1_555
O2 C9 1_555 1_555
O3 C13 1_555 1_555
N1 H1 1_555 1_555
N1 C1 1_555 1_555
N1 C2 1_555 1_555
N2 H2 1_555 1_555
N2 C8 1_555 1_555
N2 C9 1_555 1_555
N3 H3 1_555 1_555
N3 C12 1_555 1_555
N3 C13 1_555 1_555
C1 N4 1_555 1_555
C2 C3 1_555 1_555
C2 C14 1_555 1_555
C3 H4 1_555 1_555
C3 C4 1_555 1_555
C4 C5 1_555 1_555
C4 C16 1_555 1_555
C5 H5 1_555 1_555
C5 C6 1_555 1_555
C5 C10 1_555 1_555
C6 C7 1_555 1_555
C6 C18 1_555 1_555
C7 H6 1_555 1_555
C7 C8 1_555 1_555
C8 C20 1_555 1_555
C9 N5 1_555 1_555
C10 C11 1_555 1_555
C10 C21 1_555 1_555
C11 H7 1_555 1_555
C11 C12 1_555 1_555
C12 C23 1_555 1_555
C13 N6 1_555 1_555
N4 H8 1_555 1_555
N4 C14 1_555 1_555
N5 H9 1_555 1_555
N5 C20 1_555 1_555
N6 H10 1_555 1_555
N6 C23 1_555 1_555
C14 C15 1_555 1_555
C15 H11 1_555 1_555
C15 C16 1_555 1_555
C16 C17 1_555 1_555
C17 H12 1_555 1_555
C17 C18 1_555 1_555
C17 C21 1_555 1_555
C18 C19 1_555 1_555
C19 H13 1_555 1_555
C19 C20 1_555 1_555
C21 C22 1_555 1_555
C22 H14 1_555 1_555
C22 C23 1_555 1_555
O4 C24 1_555 1_555
O5 C32 1_555 1_555
O6 C36 1_555 1_555
N7 H15 1_555 1_555
N7 C24 1_555 1_555
N7 C25 1_555 1_555
N8 H16 1_555 1_555
N8 C31 1_555 1_555
N8 C32 1_555 1_555
N9 H17 1_555 1_555
N9 C35 1_555 1_555
N9 C36 1_555 1_555
C24 N10 1_555 1_555
C25 C26 1_555 1_555
C25 C37 1_555 1_555
C26 H18 1_555 1_555
C26 C27 1_555 1_555
C27 C28 1_555 1_555
C27 C39 1_555 1_555
C28 H19 1_555 1_555
C28 C29 1_555 1_555
C28 C33 1_555 1_555
C29 C30 1_555 1_555
C29 C41 1_555 1_555
C30 H20 1_555 1_555
C30 C31 1_555 1_555
C31 C43 1_555 1_555
C32 N11 1_555 1_555
C33 C34 1_555 1_555
C33 C44 1_555 1_555
C34 H21 1_555 1_555
C34 C35 1_555 1_555
C35 C46 1_555 1_555
C36 N12 1_555 1_555
N10 H22 1_555 1_555
N10 C37 1_555 1_555
N11 H23 1_555 1_555
N11 C43 1_555 1_555
N12 H24 1_555 1_555
N12 C46 1_555 1_555
C37 C38 1_555 1_555
C38 H25 1_555 1_555
C38 C39 1_555 1_555
C39 C40 1_555 1_555
C40 H26 1_555 1_555
C40 C41 1_555 1_555
C40 C44 1_555 1_555
C41 C42 1_555 1_555
C42 H27 1_555 1_555
C42 C43 1_555 1_555
C44 C45 1_555 1_555
C45 H28 1_555 1_555
C45 C46 1_555 1_555
O7 C47 1_555 1_555
O8 C55 1_555 1_555
O9 C59 1_555 1_555
N13 H29 1_555 1_555
N13 C47 1_555 1_555
N13 C48 1_555 1_555
N14 H30 1_555 1_555
N14 C54 1_555 1_555
N14 C55 1_555 1_555
N15 H31 1_555 1_555
N15 C58 1_555 1_555
N15 C59 1_555 1_555
C47 N16 1_555 1_555
C48 C49 1_555 1_555
C48 C60 1_555 1_555
C49 H32 1_555 1_555
C49 C50 1_555 1_555
C50 C51 1_555 1_555
C50 C62 1_555 1_555
C51 H33 1_555 1_555
C51 C52 1_555 1_555
C51 C56 1_555 1_555
C52 C53 1_555 1_555
C52 C64 1_555 1_555
C53 H34 1_555 1_555
C53 C54 1_555 1_555
C54 C66 1_555 1_555
C55 N17 1_555 1_555
C56 C57 1_555 1_555
C56 C67 1_555 1_555
C57 H35 1_555 1_555
C57 C58 1_555 1_555
C58 C69 1_555 1_555
C59 N18 1_555 1_555
N16 H36 1_555 1_555
N16 C60 1_555 1_555
N17 H37 1_555 1_555
N17 C66 1_555 1_555
N18 H38 1_555 1_555
N18 C69 1_555 1_555
C60 C61 1_555 1_555
C61 H39 1_555 1_555
C61 C62 1_555 1_555
C62 C63 1_555 1_555
C63 H40 1_555 1_555
C63 C64 1_555 1_555
C63 C67 1_555 1_555
C64 C65 1_555 1_555
C65 H41 1_555 1_555
C65 C66 1_555 1_555
C67 C68 1_555 1_555
C68 H42 1_555 1_555
C68 C69 1_555 1_555
O10 C70 1_555 1_555
O11 C78 1_555 1_555
O12 C82 1_555 1_555
N19 H43 1_555 1_555
N19 C70 1_555 1_555
N19 C71 1_555 1_555
N20 H44 1_555 1_555
N20 C77 1_555 1_555
N20 C78 1_555 1_555
N21 H45 1_555 1_555
N21 C81 1_555 1_555
N21 C82 1_555 1_555
C70 N22 1_555 1_555
C71 C72 1_555 1_555
C71 C83 1_555 1_555
C72 H46 1_555 1_555
C72 C73 1_555 1_555
C73 C74 1_555 1_555
C73 C85 1_555 1_555
C74 H47 1_555 1_555
C74 C75 1_555 1_555
C74 C79 1_555 1_555
C75 C76 1_555 1_555
C75 C87 1_555 1_555
C76 H48 1_555 1_555
C76 C77 1_555 1_555
C77 C89 1_555 1_555
C78 N23 1_555 1_555
C79 C80 1_555 1_555
C79 C90 1_555 1_555
C80 H49 1_555 1_555
C80 C81 1_555 1_555
C81 C92 1_555 1_555
C82 N24 1_555 1_555
N22 H50 1_555 1_555
N22 C83 1_555 1_555
N23 H51 1_555 1_555
N23 C89 1_555 1_555
N24 H52 1_555 1_555
N24 C92 1_555 1_555
C83 C84 1_555 1_555
C84 H53 1_555 1_555
C84 C85 1_555 1_555
C85 C86 1_555 1_555
C86 H54 1_555 1_555
C86 C87 1_555 1_555
C86 C90 1_555 1_555
C87 C88 1_555 1_555
C88 H55 1_555 1_555
C88 C89 1_555 1_555
C90 C91 1_555 1_555
C91 H56 1_555 1_555
C91 C92 1_555 1_555

#END

#######################################################################
#
#                 Cambridge Crystallographic Data Centre
#                                CCDC 
#
#######################################################################
#
# If this CIF has been generated from an entry in the Cambridge 
# Structural Database, then it will include bibliographic, chemical, 
# crystal, experimental, refinement or atomic coordinate data resulting 
# from the CCDC's data processing and validation procedures.
#
#######################################################################

data_ttbi_sub
_symmetry_cell_setting           triclinic
_symmetry_space_group_name_H-M   'P 1'
_symmetry_Int_Tables_number      1
_space_group_name_Hall           'P 1'
loop_
_symmetry_equiv_pos_site_id
_symmetry_equiv_pos_as_xyz
1 x,y,z
_cell_length_a                   12.607900
_cell_length_b                   12.604111
_cell_length_c                   7.500000
_cell_angle_alpha                90.000000
_cell_angle_beta                 90.000000
_cell_angle_gamma                119.989211
_cell_volume                     1032.27
loop_
_atom_site_label
_atom_site_type_symbol
_atom_site_fract_x
_atom_site_fract_y
_atom_site_fract_z
O1 O 0.961670 1.143240 0.250000
N1 N 0.778880 1.011020 0.396700
H1 H 0.802805 1.030434 0.508131
C1 C 0.333333 0.666667 0.422400
H2 H 0.333333 0.666668 0.555801
C2 C 0.661270 0.923310 0.343020
C3 C 0.455160 0.763750 0.343860
C4 C 0.558000 0.844220 0.441170
H3 H 0.557820 0.845181 0.567931
C5 C 0.851540 1.062420 0.250000
O2 O -0.143240 0.818430 0.250000
N2 N -0.011020 0.767860 0.396700
H4 H -0.030434 0.772371 0.508131
C6 C 0.076690 0.737960 0.343020
C7 C 0.236250 0.691410 0.343860
C8 C 0.155780 0.713780 0.441170
H5 H 0.154819 0.712639 0.567931
C9 C -0.062420 0.789120 0.250000
O3 O 0.181570 0.038330 0.250000
N3 N 0.232140 0.221120 0.396700
H6 H 0.227629 0.197195 0.508131
C10 C 0.262040 0.338730 0.343020
C11 C 0.308590 0.544840 0.343860
C12 C 0.286220 0.442000 0.441170
H7 H 0.287361 0.442180 0.567931
C13 C 0.210880 0.148460 0.250000
N4 N 0.232140 0.221120 0.103300
H8 H 0.227629 0.197195 -0.008131
C14 C 0.333334 0.666667 0.077600
H9 H 0.333335 0.666667 -0.055801
C15 C 0.262040 0.338730 0.156980
C16 C 0.308590 0.544840 0.156140
C17 C 0.286220 0.442000 0.058830
H10 H 0.287361 0.442180 -0.067931
N5 N 0.778880 1.011020 0.103300
H11 H 0.802805 1.030434 -0.008131
C18 C 0.661270 0.923310 0.156980
C19 C 0.455160 0.763750 0.156140
C20 C 0.558000 0.844220 0.058830
H12 H 0.557820 0.845181 -0.067931
N6 N -0.011020 0.767860 0.103300
H13 H -0.030434 0.772371 -0.008131
C21 C 0.076690 0.737960 0.156980
C22 C 0.236250 0.691410 0.156140
C23 C 0.155780 0.713780 0.058830
H14 H 0.154819 0.712639 -0.067931
O4 O 0.818430 0.961670 0.750000
N7 N 0.767860 0.778880 0.896700
H15 H 0.772371 0.802805 1.008131
C24 C 0.666666 0.333333 0.922400
H16 H 0.666665 0.333333 1.055801
C25 C 0.737960 0.661270 0.843020
C26 C 0.691410 0.455160 0.843860
C27 C 0.713780 0.558000 0.941170
H17 H 0.712639 0.557820 1.067931
C28 C 0.789120 0.851540 0.750000
O5 O 0.038330 -0.143240 0.750000
N8 N 0.221120 -0.011020 0.896700
H18 H 0.197195 -0.030434 1.008131
C29 C 0.338730 0.076690 0.843020
C30 C 0.544840 0.236250 0.843860
C31 C 0.442000 0.155780 0.941170
H19 H 0.442180 0.154819 1.067931
C32 C 0.148460 -0.062420 0.750000
O6 O 1.143240 0.181570 0.750000
N9 N 1.011020 0.232140 0.896700
H20 H 1.030434 0.227629 1.008131
C33 C 0.923310 0.262040 0.843020
C34 C 0.763750 0.308590 0.843860
C35 C 0.844220 0.286220 0.941170
H21 H 0.845181 0.287361 1.067931
C36 C 1.062420 0.210880 0.750000
N10 N 1.011020 0.232140 0.603300
H22 H 1.030434 0.227629 0.491869
C37 C 0.666667 0.333334 0.577600
H23 H 0.666668 0.333335 0.444199
C38 C 0.923310 0.262040 0.656980
C39 C 0.763750 0.308590 0.656140
C40 C 0.844220 0.286220 0.558830
H24 H 0.845181 0.287361 0.432069
N11 N 0.767860 0.778880 0.603300
H25 H 0.772371 0.802805 0.491869
C41 C 0.737960 0.661270 0.656980
C42 C 0.691410 0.455160 0.656140
C43 C 0.713780 0.558000 0.558830
H26 H 0.712639 0.557820 0.432069
N12 N 0.221120 -0.011020 0.603300
H27 H 0.197195 -0.030434 0.491869
C44 C 0.338730 0.076690 0.656980
C45 C 0.544840 0.236250 0.656140
C46 C 0.442000 0.155780 0.558830
H28 H 0.442180 0.154819 0.432069
loop_
_geom_bond_atom_site_label_1
_geom_bond_atom_site_label_2
_geom_bond_site_symmetry_1
_geom_bond_site_symmetry_2
O1 C5 1_555 1_555
N1 H1 1_555 1_555
N1 C2 1_555 1_555
N1 C5 1_555 1_555
C1 H2 1_555 1_555
C1 C3 1_555 1_555
C1 C7 1_555 1_555
C1 C11 1_555 1_555
C2 C4 1_555 1_555
C2 C18 1_555 1_555
C3 C4 1_555 1_555
C3 C19 1_555 1_555
C4 H3 1_555 1_555
C5 N5 1_555 1_555
O2 C9 1_555 1_555
N2 H4 1_555 1_555
N2 C6 1_555 1_555
N2 C9 1_555 1_555
C6 C8 1_555 1_555
C6 C21 1_555 1_555
C7 C8 1_555 1_555
C7 C22 1_555 1_555
C8 H5 1_555 1_555
C9 N6 1_555 1_555
O3 C13 1_555 1_555
N3 H6 1_555 1_555
N3 C10 1_555 1_555
N3 C13 1_555 1_555
C10 C12 1_555 1_555
C10 C15 1_555 1_555
C11 C12 1_555 1_555
C11 C16 1_555 1_555
C12 H7 1_555 1_555
C13 N4 1_555 1_555
N4 H8 1_555 1_555
N4 C15 1_555 1_555
C14 H9 1_555 1_555
C14 C16 1_555 1_555
C14 C19 1_555 1_555
C14 C22 1_555 1_555
C15 C17 1_555 1_555
C16 C17 1_555 1_555
C17 H10 1_555 1_555
N5 H11 1_555 1_555
N5 C18 1_555 1_555
C18 C20 1_555 1_555
C19 C20 1_555 1_555
C20 H12 1_555 1_555
N6 H13 1_555 1_555
N6 C21 1_555 1_555
C21 C23 1_555 1_555
C22 C23 1_555 1_555
C23 H14 1_555 1_555
O4 C28 1_555 1_555
N7 H15 1_555 1_555
N7 C25 1_555 1_555
N7 C28 1_555 1_555
C24 H16 1_555 1_555
C24 C26 1_555 1_555
C24 C30 1_555 1_555
C24 C34 1_555 1_555
C25 C27 1_555 1_555
C25 C41 1_555 1_555
C26 C27 1_555 1_555
C26 C42 1_555 1_555
C27 H17 1_555 1_555
C28 N11 1_555 1_555
O5 C32 1_555 1_555
N8 H18 1_555 1_555
N8 C29 1_555 1_555
N8 C32 1_555 1_555
C29 C31 1_555 1_555
C29 C44 1_555 1_555
C30 C31 1_555 1_555
C30 C45 1_555 1_555
C31 H19 1_555 1_555
C32 N12 1_555 1_555
O6 C36 1_555 1_555
N9 H20 1_555 1_555
N9 C33 1_555 1_555
N9 C36 1_555 1_555
C33 C35 1_555 1_555
C33 C38 1_555 1_555
C34 C35 1_555 1_555
C34 C39 1_555 1_555
C35 H21 1_555 1_555
C36 N10 1_555 1_555
N10 H22 1_555 1_555
N10 C38 1_555 1_555
C37 H23 1_555 1_555
C37 C39 1_555 1_555
C37 C42 1_555 1_555
C37 C45 1_555 1_555
C38 C40 1_555 1_555
C39 C40 1_555 1_555
C40 H24 1_555 1_555
N11 H25 1_555 1_555
N11 C41 1_555 1_555
C41 C43 1_555 1_555
C42 C43 1_555 1_555
C43 H26 1_555 1_555
N12 H27 1_555 1_555
N12 C44 1_555 1_555
C44 C46 1_555 1_555
C45 C46 1_555 1_555
C46 H28 1_555 1_555

#END
